72
-5.439828	-4.000618	-74651.117225
C	3.4934074878692627	0.6842219233512878	1.8422071933746338
C	3.9358901977539062	-1.3997695446014404	0.5974813103675842
C	3.2281219959259033	-2.658660411834717	0.5567966103553772
C	2.3737223148345947	-2.7201600074768066	1.7384510040283203
C	0.7676531076431274	-4.119841575622559	0.49408167600631714
C	-0.6774410009384155	-4.137393474578857	0.4797340929508209
C	-1.1362460851669312	-3.4552299976348877	1.686739206314087
C	-2.3409769535064697	-2.776700258255005	1.6929078102111816
C	-2.44789981842041	-1.504401683807373	2.3755252361297607
C	-1.2926619052886963	-0.8305928707122803	2.8874709606170654
C	-1.3104618787765503	0.6396377086639404	2.9272243976593018
C	-2.482025384902954	1.3117964267730713	2.451392412185669
C	-0.04575478285551071	1.390228033065796	2.958989381790161
C	2.306537628173828	2.6784677505493164	1.8854082822799683
C	1.1014248132705688	3.355797052383423	1.892197608947754
C	-0.0574665293097496	2.7508316040039062	2.5131866931915283
C	3.161017417907715	2.7019689083099365	0.7020372152328491
C	3.8996715545654297	1.4609800577163696	0.6751777529716492
C	-3.172773838043213	-2.7353997230529785	0.4944494366645813
C	-1.3768376111984253	-3.922591209411621	-0.7178199291229248
C	1.4848004579544067	-3.8877551555633545	-0.6897587180137634
C	2.726494789123535	-3.1502578258514404	-0.659001350402832
C	4.128355979919434	-0.656844437122345	-0.5775011777877808
C	4.110320091247559	0.7877475023269653	-0.5380584001541138
C	0.6665717363357544	4.104249000549316	0.7164821624755859
C	2.6477513313293457	3.2475838661193848	-0.48520419001579285
C	-1.218456506729126	3.3274033069610596	1.869189977645874
C	-2.406980037689209	2.6217381954193115	1.8392184972763062
C	-3.544252395629883	0.5996038913726807	1.7731596231460571
C	-3.528142213821411	-0.7823610305786133	1.7363861799240112
C	-2.6363449096679688	-3.2149078845977783	-0.7110379934310913
C	-2.6539745330810547	-2.3393492698669434	-1.8788585662841797
C	1.3886299133300781	3.9562315940856934	-0.4777592122554779
C	0.6648159623146057	3.5757079124450684	-1.6875159740447998
C	-3.3603341579437256	-1.1511986255645752	-1.8539867401123047
C	-3.9117660522460938	-1.4943288564682007	0.5205315351486206
C	-1.3556150197982788	-2.390509843826294	-2.5173299312591553
C	-0.6307924389839172	-3.4757936000823975	-1.8903930187225342
C	1.4017200469970703	2.5248684883117676	-2.3574907779693604
C	2.6883373260498047	2.4380617141723633	-1.698959469795227
C	-0.7176262736320496	3.5591514110565186	-1.700943946838379
C	-1.4736156463623047	3.921288013458252	-0.5056838989257812
C	0.751337468624115	-3.4597458839416504	-1.8772752285003662
C	-4.09873628616333	-0.7559862732887268	-0.658205509185791
C	3.3952529430389404	1.2500134706497192	-1.7245315313339233
C	-0.7787520289421082	4.086658000946045	0.7023621797561646
C	-3.9462673664093018	1.366660475730896	0.5982142090797424
C	-4.117195129394531	0.6887500882148743	-0.6185663938522339
C	-2.714796543121338	3.182752847671509	-0.5374805927276611
C	-3.2383816242218018	2.625274181365967	0.6394556164741516
C	1.4619553089141846	-2.3567655086517334	-2.489969253540039
C	2.745859384536743	-2.274386167526245	-1.8264392614364624
C	2.8420047760009766	0.1006680354475975	-2.4093756675720215
C	3.423494815826416	-1.069880485534668	-1.787811517715454
C	-0.6921759843826294	-1.2015060186386108	-2.960907459259033
C	-1.443655252456665	0.06259478628635406	-2.9343137741088867
C	-2.7958264350891113	0.03327731043100357	-2.464630126953125
C	-1.4158068895339966	2.491196393966675	-2.3850138187408447
C	-0.7234292030334473	1.3450827598571777	-2.8928918838500977
C	0.7475602030754089	1.3625694513320923	-2.878410816192627
C	-3.3907015323638916	1.1684852838516235	-1.79142165184021
C	0.7785874605178833	-1.18397057056427	-2.9465107917785645
C	1.4988125562667847	0.09799198061227798	-2.904694080352783
C	-2.712646245956421	2.3729629516601562	-1.7521196603775024
C	2.4013330936431885	1.3708410263061523	2.499680757522583
C	0.011372548528015614	-2.8850388526916504	2.361013650894165
C	1.2370152473449707	0.6697499752044678	2.9516103267669678
C	3.5104010105133057	-0.6976482272148132	1.8051007986068726
C	-0.009643197059631348	-1.5510751008987427	2.8796603679656982
C	1.1852812767028809	-3.426379680633545	1.7092106342315674
C	1.255014181137085	-0.8004488348960876	2.9118802547454834
C	2.435936212539673	-1.4462170600891113	2.4232583045959473
